This is the Java code for my Machine Learning project.

TrainC50.java
===============================================================
Using WEKA 3.7 API to learn and predict authorship of news articles .
Input file: training and test file in .arff format (Default format for WEKA)
Output file: a .csv file contains f-measure of test result
===============================================================